Measurement: Raman, 785 nm, unoriented, Raman Data Processed
Mineral: Epsomite
Rruff sample: X050074
Ideal chemistry: MgS^6+^O_4_7H_2_O
Locality: Death Valley, Inyo County, California, USA
Source: Caltech
Raman shift (cm-1)	intensity
206	0
210	7.311
214	7.184
218	15.961
222	20.684
226	25.217
230	25.716
234	28.767
238	31.725
242	35.889
246	38.564
250	34.284
254	27.364
258	22.035
262	12.347
266	9.652
270	5.41
274	3.5
278	1.033
282	1.247
286	0.485
290	1.033
294	0.389
298	0.576
302	0.334
306	0.486
310	0.412
314	1.833
318	0.033
322	0.308
326	0.148
330	1.224
334	1.139
338	0.724
342	1.956
346	3.205
350	5.922
354	8.65
358	9.383
362	10.236
366	12.142
370	9.09
374	5.716
378	1.503
382	0.936
386	0.347
390	0.867
394	1.083
398	0.142
402	0.238
406	0.651
410	2.326
414	3.524
418	4.403
422	7.244
426	9.13
430	12.31
434	20.151
438	29.275
442	37.367
446	42.502
450	39.609
454	37.604
458	42.795
462	54.435
466	61.887
470	55.649
474	39.139
478	23.103
482	16.129
486	12.735
490	10.651
494	7.5
498	4.73
502	3.888
506	2.077
510	1.037
514	0.552
518	0.673
522	0.104
526	0.464
530	0.416
534	1.124
538	0.178
542	1.221
546	1.446
550	3.692
554	2.98
558	4.359
562	5.185
566	6.323
570	8.335
574	9.308
578	10.784
582	12.3
586	15.091
590	17.914
594	21.204
598	25.477
602	28.622
606	32.091
610	32.882
614	31.68
618	28.361
622	27.404
626	25.5
630	24.189
634	20.962
638	17.051
642	13.813
646	10.745
650	8.754
654	5.721
658	4.804
662	3.672
666	2.536
670	1.753
674	0.796
678	1.091
682	0.929
686	0.063
690	0.646
694	0.42
698	0.062
702	0.062
706	0.876
710	0.157
714	0.488
718	0.289
722	0.364
726	0.858
730	0.365
734	1.245
738	0.559
742	0.966
746	0.295
750	1.053
754	0.268
758	0.317
762	0.994
766	0.653
770	1.386
774	1.065
778	1.638
782	1.482
786	2.119
790	1.587
794	2.441
798	1.535
802	1.347
806	1.709
810	1.62
814	1.278
818	1.947
822	1.558
826	1.217
830	2.698
834	1.287
838	1.781
842	1.294
846	0.933
850	0.237
854	1.468
858	1.2
862	0.664
866	0.113
870	0.568
874	0.434
878	0.022
882	0.893
886	0.174
890	0.223
894	0.327
898	0.547
902	1.053
906	0.11
910	0.117
914	0.054
918	0.417
922	0.237
926	0.102
930	1.03
934	1.349
938	0.092
942	0.835
946	0.727
950	2.033
954	2.801
958	4.575
962	8.896
966	11.715
970	18.113
974	34.33
978	124.183
982	483.595
986	412.726
990	112.533
994	28.526
998	11.162
1002	6.463
1006	3.59
1010	2.727
1014	0.993
1018	1.089
1022	1.262
1026	0.587
1030	0.013
1034	0.272
1038	0.286
1042	0.178
1046	0.373
1050	1.135
1054	1.963
1058	2.646
1062	3.93
1066	5.215
1070	6.501
1074	8.792
1078	12.894
1082	13.367
1086	13.662
1090	11.585
1094	9.785
1098	7.283
1102	6.521
1106	4.395
1110	4.375
1114	3.824
1118	4.136
1122	4.45
1126	5.117
1130	7.083
1134	9.601
1138	13.258
1142	15.84
1146	17.632
1150	16.791
1154	13.099
1158	9.282
1162	6.469
1166	4.449
1170	3.109
1174	2.126
1178	1.297
1182	0.782
1186	0.653
1190	1.436
1194	0.581
1198	0.136
1202	0.349
1206	0.785
1210	1.105
1214	0.424
1218	0.08
1222	1.061
1226	0.377
1230	0.69
1234	1.007
1238	1.083
1242	0.333
1246	0.934
1250	0.132
1254	0.469
1258	1.601
1262	1.098
1266	1.18
1270	0.677
1274	0.249
1278	0.358
1282	1.502
1286	0.774
1290	1.16
1294	0.516
1298	0.365
1302	1.1
1306	0.602
1310	1.115
1314	1.569
1318	1.567
1322	1.556
1326	0.532
1330	0.575
1334	2.462
1338	0.431
1342	2.246
1346	0.478
1350	1.678
1354	1.172
1358	2.03
1362	1.832
1366	1.734
1370	1.503
1374	1.591
1378	0.812
1382	1.048
1386	0.334
1390	0.503
1394	1.369
1398	1.868
1402	0.378
1406	0.65
1410	1.485
1414	0.032
1418	0.505
1422	1.088
1426	1.28
1430	1.109
1434	1.693
1438	1.258
1442	0.43
1446	1.282
1450	1.741
1454	2.238
1458	0.928
1462	1.141
1466	0.474
1470	0.792
1474	1.156
1478	1.011
1482	2.221
1486	1.248
1490	0.683
1494	1.085
1498	0.194
