Measurement: Broad Scan, 785 nm, unoriented, Raman Data RAW
Mineral: Calcite
Rruff sample: R040070
Ideal chemistry: CaCO_3_
Locality: Pryor Mountain, Big Horn County, Montana, USA
Source: University of Arizona Mineral Museum
Description: Orange scalenohedral crystals
Measured chemistry: (Ca_0.99_Mg_0.01_)CO_3_
Raman shift (cm-1)	intensity
125.452	387.683
137.023	876.054
148.594	4021.69
160.165	3312.94
171.736	968.617
183.306	658.112
194.877	576.272
206.448	563.692
218.019	562.914
229.59	590.715
241.16	718.455
252.731	1101.87
264.302	2258.85
275.873	9213.52
287.444	8885.3
299.014	1848.1
310.585	852.813
322.156	573.458
333.727	462.157
345.298	407.912
356.868	386.75
368.439	354.811
380.01	349.366
391.581	316.599
403.152	294.472
414.722	301.069
426.293	270.956
437.864	266.887
449.435	264.848
461.006	259.628
472.576	254.17
484.147	252.186
495.718	242.825
507.289	256.531
518.86	240.329
530.43	234.62
542.001	237.079
553.572	247.531
565.143	239.448
576.714	232.481
588.284	237.111
599.855	241.388
611.426	244.97
622.997	240.12
634.568	234.648
646.138	230.736
657.709	217.203
669.28	229.859
680.851	230.655
692.422	290.341
703.992	1092.96
715.563	4578.92
727.134	396.848
738.705	247.996
750.276	233.833
761.846	219.673
773.417	235.577
784.988	222.034
796.559	219.568
808.13	206.538
819.7	217.356
831.271	215.606
842.842	212.537
854.413	219.917
865.984	211.507
877.554	222.082
889.125	227.776
900.696	236.934
912.267	236.671
923.838	241.908
935.408	237.968
946.979	237.605
958.55	240.843
970.121	246.376
981.692	248.509
993.263	295.264
1004.83	352.495
1016.4	403.715
1027.97	400.663
1039.55	376.918
1051.12	411.212
1062.69	835.619
1074.26	1500.12
1085.83	72359
1097.4	1937.99
1108.97	526.629
1120.54	390.022
1132.11	333.09
1143.68	298.601
1155.25	285.74
1166.82	282.062
1178.39	289.576
1189.97	292.017
1201.54	289.838
1213.11	282.955
1224.68	288.517
1236.25	276.091
1247.82	286.03
1259.39	299.783
1270.96	306.864
1282.53	318.251
1294.1	322.518
1305.67	326.906
1317.24	293.091
1328.82	282.179
1340.39	266.658
1351.96	271.513
1363.53	264.59
1375.1	286.601
1386.67	275.173
1398.24	274.084
1409.81	319.739
1421.38	351.025
1432.95	923.569
1444.52	396.554
1456.09	280.96
1467.66	266.699
1479.24	264.581
1490.81	261.943
1502.38	270.604
1513.95	268.494
1525.52	274.996
1537.09	267.029
1548.66	263.607
1560.23	267.74
1571.8	265.431
1583.37	251.09
1594.94	252.891
1606.52	266.998
1618.09	249.606
1629.66	257.896
1641.23	256.693
1652.8	254.693
1664.37	270.915
1675.94	238.579
1687.51	243.152
1699.08	229.95
1710.65	214.495
1722.22	233.083
1733.79	248.274
1745.37	839.509
1756.93	454.493
1768.51	236.081
1780.08	224.339
1791.65	217.576
1803.22	209.519
1814.79	186.755
1826.36	200.231
1837.93	197.144
1849.5	192.234
1861.07	181.994
1872.64	188.497
1884.21	183.772
1895.79	192.339
1907.36	169.511
1918.93	165.647
1930.5	155.687
1942.07	181.119
1953.64	176.752
1965.21	167.92
1976.78	133.573
1988.35	168.117
1999.92	167.954
2011.49	173.059
2023.06	162.053
2034.63	161.624
2046.2	158.271
2057.78	158.148
2069.35	162.682
2080.92	158.416
2092.49	156.941
2104.06	165.974
2115.63	174.09
2127.2	170.362
2138.77	182.62
2150.34	206.778
2161.91	185.715
2173.48	182.833
2185.05	177.562
2196.63	184.542
2208.2	172.193
2219.77	180.176
2231.34	173.235
2242.91	168.641
2254.48	171.439
2266.05	166.795
2277.62	174.69
2289.19	177.643
2300.76	193.514
2312.33	171.918
2323.91	172.881
2335.47	178.248
2347.05	181.172
2358.62	178.9
2370.19	197.517
2381.76	185.645
2393.33	192.951
2404.9	183.02
2416.47	176.941
2428.04	184.474
2439.61	188.055
2451.18	195.471
2462.75	185.621
2474.32	177.858
2485.9	193.9
2497.47	189.125
2509.04	189.644
2520.61	197.769
2532.18	192.516
2543.75	165.987
2555.32	184.179
2566.89	192.067
2578.46	176.641
2590.03	189.421
2601.6	190.08
2613.18	197.539
2624.74	194.631
2636.32	191.953
2647.89	183.71
2659.46	186.08
2671.03	191.111
2682.6	194.401
2694.17	173.607
2705.74	185.262
2717.31	190.02
2728.88	177.102
2740.45	170.385
2752.02	177.593
2763.59	189.745
2775.17	171.095
2786.74	175.066
2798.31	169.634
2809.88	174.261
2821.45	159.463
2833.02	154.941
2844.59	161.145
2856.16	163.921
2867.73	163.861
2879.3	150.623
2890.87	150.596
2902.45	160.499
2914.01	150.286
2925.59	140.572
2937.16	140.973
2948.73	146.322
2960.3	137.871
2971.87	132.029
2983.44	131.055
2995.01	119.22
3006.58	117.96
3018.15	111.582
3029.72	119.499
3041.29	119.448
3052.86	108.953
3064.44	102.971
3076.01	109.662
3087.58	95.4371
3099.15	86.696
3110.72	87.1046
3122.29	89.4846
3133.86	74.9507
3145.43	84.1519
3157	68.0206
3168.57	54.7728
3180.14	62.2138
3191.72	60.9543
3203.28	54.7294
3214.86	61.6654
3226.43	62.1754
3238	55.5717
3249.57	60.0693
3261.14	47.3875
3272.71	51.5561
3284.28	56.2593
3295.85	44.5296
3307.42	49.998
3318.99	49.0996
3330.56	34.5315
3342.14	49.1164
3353.71	35.1225
3365.28	39.0169
3376.85	35.6631
3388.42	29.6733
3399.99	45.1216
3411.56	27.7432
3423.13	27.0776
3434.7	21.3085
3446.27	39.8396
3457.84	33.767
3469.41	34.8909
3480.99	43.0296
3492.55	26.7471
3504.13	18.9267
3515.7	39.3343
3527.27	21.1148
3538.84	29.9618
3550.41	15.0025
3561.98	14.6964
3573.55	20.7843
3585.12	21.1126
3596.69	28.2229
3608.26	7.89099
3619.83	10.3723
3631.41	10.7645
3642.98	19.1005
3654.55	20.5456
3666.12	11.691
3677.69	24.4997
3689.26	15.5064
3700.83	16.7052
3712.4	12.5608
3723.97	16.969
3735.54	17.8522
3747.11	6.83846
3758.68	-0.0553898
3770.26	9.02567
3781.82	15.2308
3793.4	7.0982
3804.97	14.8767
3816.54	8.47754
3828.11	11.295
3839.68	6.83479
3851.25	16.7168
3862.82	5.22142
3874.39	9.18372
3885.96	4.58072
3897.53	13.4203
3909.1	7.0351
3920.68	6.98918
3932.25	0.705764
3943.82	4.64428
3955.39	8.12614
3966.96	26.5319
3978.53	3.97902
3990.1	18.3925
4001.67	18.8102
4013.24	14.3304
4024.81	10.6316
4036.38	-5.19142
4047.95	19.2634
4059.53	8.80138
4071.09	1.68505
4082.67	1.1967
4094.24	1.35427
4105.81	13.4152
4117.38	-0.926583
4128.95	6.21722
4140.52	4.86098
4152.09	-0.223469
4163.66	3.606
4175.23	16.3038
4186.8	8.03623
4198.37	10.044
4209.94	9.5162
4221.52	9.49194
4233.09	13.2007
4244.66	5.29256
4256.23	17.0144
4267.8	23.3502
4279.37	-12.5739
4290.94	4.27719
4302.51	-3.32807
4314.08	16.3447
4325.65	-11.837
4337.22	-6.56254
