Measurement: Broad Scan, 780 nm, unoriented, Raman Data RAW
Mineral: Fluorite
Rruff sample: R050115
Ideal chemistry: CaF_2_
Locality: Isthak Valley Iskardu, N.A. Gilgit, Pakistan
Source: Syed Shah
Description: Colorless fragment
Measured chemistry: CaF_2_
Raman shift (cm-1)	intensity
80.8552	142.355
98.2114	1987.18
115.568	2660.36
132.924	2924.86
150.28	3803.29
167.636	3863.84
184.992	3481.85
202.349	3654.55
219.705	3891.91
237.061	4493.04
254.417	4844.91
271.773	4774.3
289.13	4588.27
306.486	4990.8
323.842	4832.24
341.198	4199.4
358.554	3983.21
375.911	3845.83
393.267	3709.8
410.623	3468.48
427.979	3259.22
445.335	3030.19
462.692	2909.75
480.048	2768.51
497.404	2580.42
514.76	2437.2
532.116	2348.12
549.473	2293.97
566.829	2277.37
584.185	2218.73
601.541	2225.8
618.897	2268.37
636.254	2376.15
653.61	2402.43
670.966	2486.67
688.322	2457.48
705.678	2273.19
723.035	2055.8
740.391	1898.73
757.747	1817.41
775.103	1781.65
792.459	1674.91
809.816	1514.41
827.172	1314.97
844.528	1142.16
861.884	1043.56
879.24	975.741
896.597	920.834
913.953	922.539
931.309	968.084
948.665	1024.74
966.021	1102.24
983.378	1182.45
1000.73	1307.92
1018.09	1489.05
1035.45	1748.41
1052.8	2064.82
1070.16	2316.02
1087.52	2686.19
1104.87	3242.04
1122.23	4234.66
1139.58	6010.73
1156.94	9389.71
1174.3	16915.7
1191.65	18509.7
1209.01	27038.1
1226.36	30404.3
1243.72	41358.4
1261.08	36153.5
1278.43	37965.9
1295.79	21882.3
1313.14	17099.7
1330.5	18498.4
1347.86	10314.3
1365.21	8068.14
1382.57	7439.2
1399.93	7154.07
1417.28	6798.69
1434.64	6741.02
1451.99	7084.55
1469.35	8234.24
1486.71	10135.7
1504.06	11952.4
1521.42	12902.4
1538.78	13676.7
1556.13	15047
1573.49	16298.2
1590.85	15770.6
1608.2	13541.9
1625.56	10775.4
1642.91	9513.93
1660.27	9446.11
1677.63	9984.15
1694.98	12800.6
1712.34	9550.04
1729.69	8517.86
1747.05	7928.53
1764.41	7045.69
1781.76	4856.4
1799.12	3734.8
1816.47	2889.63
1833.83	2370.77
1851.19	2042.3
1868.54	1745.12
1885.9	1578.23
1903.26	1425.25
1920.61	1241.38
1937.97	1133.73
1955.33	1278.19
1972.68	895.919
1990.04	796.192
2007.39	982.608
2024.75	710.175
2042.11	596.32
2059.46	481.18
2076.82	425.803
2094.17	414.363
2111.53	413.479
2128.89	431.183
2146.24	460.68
2163.6	488.598
2180.95	399.659
2198.31	364.458
2215.67	344.651
2233.02	340.11
2250.38	323.459
2267.74	321.675
2285.09	306.406
2302.45	284.908
2319.8	285.459
2337.16	311.164
2354.52	321.981
2371.87	304.822
2389.23	335.502
2406.59	372.347
2423.94	466.58
2441.3	526.798
2458.66	659.082
2476.01	755.006
2493.37	730.696
2510.72	722.994
2528.08	740.208
2545.44	851.275
2562.79	1053.72
2580.15	1251.08
2597.5	1299.98
2614.86	1193.93
2632.22	1081.34
2649.57	923.707
2666.93	779.559
2684.28	670.815
2701.64	603.733
2719	518.884
2736.35	452.686
2753.71	393.448
2771.07	365.783
2788.42	348.5
2805.78	329.312
2823.14	315.95
2840.49	305.186
2857.85	298.863
2875.2	289.698
2892.56	283.088
2909.92	268.478
2927.27	257.492
2944.63	255.913
2961.98	253.371
2979.34	250.704
2996.7	251.892
3014.05	244.572
3031.41	248.036
3048.76	264.979
3066.12	299.956
3083.48	325.693
3100.83	372.967
3118.19	368.229
3135.55	425.014
3152.9	649.571
3170.26	866.818
3187.61	848.052
3204.97	1229.95
3222.33	1452.44
3239.68	1164.91
3257.04	1413.45
3274.4	1691.55
3291.75	1135.63
3309.11	751.31
3326.47	778.643
3343.82	746.644
3361.18	846.326
3378.53	908.624
3395.89	892.317
3413.25	873.121
3430.6	825.42
3447.96	799.897
3465.31	570.898
3482.67	429.525
3500.03	290.196
3517.38	221.214
3534.74	206.536
3552.09	146.545
3569.45	122.892
3586.81	91.6021
3604.16	71.6586
3621.52	76.6105
3638.88	68.6802
3656.23	51.2246
3673.59	69.2633
3690.95	53.6485
3708.3	48.7195
3725.66	32.7397
3743.01	38.1854
3760.37	37.1709
3777.73	38.1716
3795.08	27.5622
3812.44	25.7738
3829.79	19.804
3847.15	16.2132
3864.51	18.1474
3881.86	19.7987
3899.22	15.5028
3916.57	20.4349
3933.93	20.0004
3951.29	9.29439
3968.64	14.1696
3986	7.92803
4003.36	7.59736
4020.71	-1.4018
4038.07	6.3956
4055.43	7.84427
4072.78	5.96714
4090.14	6.41451
4107.49	9.61041
4124.85	5.41683
4142.21	6.56574
4159.56	4.44324
4176.92	3.32249
4194.27	2.83598
4211.63	8.06213
4228.99	2.69315
4246.34	6.56495
4263.7	9.03192
4281.06	7.50255
4298.41	8.64936
4315.77	0.956078
4333.12	2.86604
4350.48	5.45621
4367.84	5.86951
4385.19	0
4402.55	0
4419.9	0
4437.26	0
4454.62	0
4471.97	0
4489.33	0
4506.69	0
4524.04	0
4541.4	0
4558.76	0
4576.11	0
4593.47	0
4610.82	0
4628.18	0
4645.54	0
4662.89	0
4680.25	0
4697.6	0
4714.96	0
4732.32	0
4749.67	0
4767.03	0
4784.39	0
4801.74	0
4819.1	0
4836.45	0
4853.81	0
4871.17	0
4888.52	0
4905.88	0
4923.23	0
4940.59	0
4957.95	0
4975.3	0
4992.66	0
5010.02	0
5027.37	0
5044.73	0
5062.08	0
5079.44	0
5096.8	0
5114.15	0
5131.51	0
5148.87	0
5166.22	0
5183.58	0
5200.93	0
5218.29	0
5235.65	0
5253	0
5270.36	0
5287.72	0
5305.07	0
5322.43	0
5339.78	0
5357.14	0
5374.5	0
5391.85	0
5409.21	0
5426.56	0
5443.92	0
5461.28	0
5478.63	0
5495.99	0
5513.35	0
5530.7	0
5548.06	0
5565.41	0
5582.77	0
5600.13	0
5617.48	0
5634.84	0
5652.19	0
5669.55	0
5686.91	0
5704.26	0
5721.62	0
5738.98	0
5756.33	0
5773.69	0
5791.05	0
5808.4	0
5825.76	0
5843.11	0
5860.47	0
5877.83	0
5895.18	0
5912.54	0
5929.9	0
5947.25	0
5964.61	0
5981.96	0
5999.32	0
6016.68	0
6034.03	0
6051.39	0
6068.74	0
6086.1	0
6103.46	0
6120.81	0
6138.17	0
6155.52	0
6172.88	0
6190.24	0
6207.59	0
6224.95	0
6242.31	0
6259.66	0
6277.02	0
6294.38	0
6311.73	0
6329.09	0
6346.44	0
6363.8	0
6381.16	0
6398.51	0
6415.87	0
6433.23	0
6450.58	0
6467.94	0
6485.29	0
6502.65	0
6520.01	0
6537.36	0
6554.72	0
6572.07	0
6589.43	0
6606.79	0
6624.14	0
