Measurement: Broad Scan, 780 nm, unoriented, Raman Data RAW
Mineral: Gypsum
Rruff sample: R040029
Ideal chemistry: CaS^6+^O_4_2H_2_O
Locality: Twin Buttes, Pima County, Arizona, USA
Source: University of Arizona Mineral Museum
Description: Colorless prismatic crystal
Raman shift (cm-1)	intensity
123.776	802.113
135.346	826.287
146.917	810.115
158.488	764.316
170.059	764.906
181.63	767.279
193.201	745.229
204.771	722.01
216.342	712.202
227.913	686.028
239.484	672.094
251.054	671.746
262.625	667.089
274.196	670.472
285.767	670.409
297.338	677.906
308.909	676.213
320.479	671.025
332.05	652.427
343.621	645.809
355.192	641.756
366.762	642.452
378.333	682.788
389.904	687.493
401.475	738.003
413.046	777.349
424.616	734.398
436.187	656.516
447.758	666.998
459.329	768.646
470.9	808.598
482.471	935.735
494.041	980.28
505.612	829.725
517.183	647.939
528.754	592.203
540.324	579.055
551.895	580
563.466	583.898
575.037	606.881
586.608	634.24
598.178	641.938
609.749	664.45
621.32	654.722
632.891	595.179
644.462	533.771
656.033	514.956
667.603	508.068
679.174	500.908
690.745	486.041
702.316	474.982
713.886	470.119
725.457	465.849
737.028	459.85
748.599	457.408
760.17	454.171
771.74	449.625
783.311	448.716
794.882	443.276
806.453	436.895
818.024	435.113
829.595	427.577
841.165	425.53
852.736	422.071
864.307	416.329
875.878	410.585
887.448	406.802
899.019	400.298
910.59	396.743
922.161	396.776
933.732	392.202
945.303	394.762
956.873	407.82
968.444	499.169
980.015	862.681
991.586	980.004
1003.16	1490.71
1014.73	1298.01
1026.3	716.666
1037.87	401.369
1049.44	358.356
1061.01	349.7
1072.58	348.47
1084.15	350.538
1095.72	356.413
1107.29	383.219
1118.87	399.848
1130.43	431.994
1142.01	428.767
1153.58	382.902
1165.15	338.121
1176.72	320.421
1188.29	318.221
1199.86	314.974
1211.43	311.644
1223	308.87
1234.57	306.916
1246.14	304.832
1257.71	302.283
1269.29	301.197
1280.86	299.993
1292.43	298.085
1304	299.317
1315.57	295.072
1327.14	291.849
1338.71	290.464
1350.28	288.451
1361.85	286.038
1373.42	286.434
1384.99	281.744
1396.56	278.421
1408.13	281.467
1419.7	277.068
1431.28	276.953
1442.85	272.417
1454.42	271.547
1465.99	270.996
1477.56	267.779
1489.13	265.065
1500.7	261.632
1512.27	258.566
1523.84	255.261
1535.41	253.899
1546.98	252.203
1558.56	248.264
1570.13	244.938
1581.7	244.781
1593.27	241.974
1604.84	240.307
1616.41	238.036
1627.98	232.507
1639.55	232.073
1651.12	227.145
1662.69	225.033
1674.26	221.887
1685.83	218.545
1697.4	215.615
1708.97	214.017
1720.55	211.386
1732.12	207.215
1743.69	204.19
1755.26	199.234
1766.83	198.65
1778.4	194.274
1789.97	191.469
1801.54	188.182
1813.11	186.323
1824.68	181.504
1836.25	179.184
1847.83	174.185
1859.4	172.176
1870.97	168.644
1882.54	165.059
1894.11	162.454
1905.68	159.696
1917.25	156.853
1928.82	152.16
1940.39	149.968
1951.96	147.785
1963.53	144.756
1975.1	141.75
1986.67	137.938
1998.24	135.572
2009.82	132.106
2021.39	128.422
2032.96	125.327
2044.53	124.592
2056.1	121.072
2067.67	118.906
2079.24	115.935
2090.81	112.348
2102.38	110.914
2113.95	109.257
2125.52	104.816
2137.09	102.956
2148.67	101.115
2160.24	99.0389
2171.81	96.2942
2183.38	94.3131
2194.95	92.5468
2206.52	89.4857
2218.09	88.2296
2229.66	87.0913
2241.23	84.5933
2252.8	81.7813
2264.37	79.7616
2275.95	78.29
2287.52	74.2065
2299.09	72.9329
2310.66	71.1841
2322.23	69.7486
2333.8	68.1445
2345.37	66.1229
2356.94	64.1599
2368.51	62.4122
2380.08	60.9392
2391.65	58.5114
2403.22	57.2729
2414.79	54.9876
2426.36	53.4973
2437.94	52.2302
2449.51	49.3946
2461.08	50.398
2472.65	47.5783
2484.22	46.7658
2495.79	45.5219
2507.36	43.7517
2518.93	42.6583
2530.5	41.281
2542.07	40.4424
2553.64	40.0519
2565.22	38.5963
2576.79	37.9671
2588.36	35.5326
2599.93	35.1297
2611.5	33.2318
2623.07	32.4603
2634.64	31.6938
2646.21	31.8317
2657.78	30.1247
2669.35	29.0642
2680.92	27.1054
2692.49	25.8139
2704.06	25.8746
2715.64	24.8825
2727.21	25.4365
2738.78	23.0134
2750.35	22.9425
2761.92	20.9431
2773.49	20.8753
2785.06	20.0728
2796.63	19.6177
2808.2	18.7659
2819.77	17.7293
2831.34	17.0771
2842.91	17.1059
2854.49	16.7935
2866.06	16.3064
2877.63	14.7346
2889.2	13.9268
2900.77	14.2688
2912.34	13.4769
2923.91	12.6865
2935.48	13.3773
2947.05	11.9275
2958.62	11.3243
2970.19	10.3084
2981.76	10.12
2993.33	10.7688
3004.91	10.3471
3016.48	9.00864
3028.05	9.08625
3039.62	8.74161
3051.19	8.81108
3062.76	8.84547
3074.33	7.70326
3085.9	7.32015
3097.47	7.09468
3109.04	6.93323
3120.61	7.16181
3132.18	6.92794
3143.76	7.33032
3155.33	7.09566
3166.9	5.92297
3178.47	5.16089
3190.04	5.93379
3201.61	5.7201
3213.18	6.84028
3224.75	5.94927
3236.32	5.72468
3247.89	4.67095
3259.46	5.58008
3271.03	5.97304
3282.6	6.69154
3294.18	5.5934
3305.75	5.11869
3317.32	4.47142
3328.89	5.57069
3340.46	6.15377
3352.03	6.44163
3363.6	5.34
3375.17	5.41418
3386.74	6.69961
3398.31	8.28057
3409.88	9.08996
3421.45	7.80432
3433.03	7.09854
3444.6	5.42453
3456.17	4.36205
3467.74	5.66832
3479.31	4.98452
3490.88	4.75266
3502.45	3.45225
3514.02	2.9123
3525.59	3.22378
3537.16	4.46386
3548.73	4.38061
3560.3	4.41294
3571.88	3.44121
3583.45	2.28513
3595.02	2.37028
3606.59	2.70806
3618.16	4.23349
3629.73	4.45546
3641.3	3.45917
3652.87	4.28907
3664.44	3.11696
3676.01	2.31616
3687.58	3.42965
3699.15	3.06971
3710.72	2.52391
3722.3	2.34982
3733.87	2.01855
3745.44	3.03706
3757.01	3.45081
3768.58	2.66276
3780.15	2.74836
3791.72	1.7222
3803.29	2.13295
3814.86	2.49627
3826.43	2.93748
3838	1.94038
3849.57	1.82683
3861.14	1.9612
3872.72	1.80752
3884.29	2.9519
3895.86	3.92795
3907.43	3.01857
3919	2.35936
3930.57	0.801963
3942.14	2.6013
3953.71	3.53628
3965.28	2.38937
3976.85	2.30072
3988.42	1.28464
3999.99	1.70647
4011.57	1.20391
4023.14	2.18891
4034.71	1.29719
4046.28	1.32684
4057.85	0.302013
4069.42	1.28567
4080.99	2.01293
4092.56	1.71065
4104.13	1.04295
4115.7	1.29136
4127.27	0.662823
4138.84	1.7477
4150.41	1.81124
4161.98	1.88861
4173.56	0.694892
4185.13	0.484132
4196.7	0.913006
4208.27	1.18661
4219.84	1.14301
4231.41	0.627194
4242.98	0.539582
4254.55	1.88016
4266.12	1.32489
4277.69	2.11801
4289.26	1.10882
4300.84	0.610786
4312.41	0.0733958
4323.98	-0.0862434
